INIT MASTER(S)
NASTRAN SYSTEM(442)=-1,SYSTEM(319)=1
ID temp,Femap
SOL SESTATIC
CEND
  TITLE = NX Nastran Static Analysis Set
  ECHO = NONE
  DISPLACEMENT(PLOT) = ALL
  SPC = 1
SUBCASE 1
  LOAD = 1
SUBCASE 2
  LOAD = 2
SUBCASE 3
  SPC = 2
  LOAD = 3
BEGIN BULK
$ ***************************************************************************
$   Written by : Femap with NX Nastran
$   Version    : 11.3.1
$   Translator : NX Nastran
$   From Model : C:\temp\temp.modfem
$   Date       : Sat Mar 18 07:05:18 2017
$ ***************************************************************************
$
PARAM,POST,-1
PARAM,OGEOM,NO
PARAM,AUTOSPC,YES
PARAM,K6ROT,100.
PARAM,GRDPNT,0
CORD2C         1       0      0.      0.      0.      0.      0.      1.+FEMAPC1
+FEMAPC1      1.      0.      1.        
CORD2S         2       0      0.      0.      0.      0.      0.      1.+FEMAPC2
+FEMAPC2      1.      0.      1.        
$ Femap with NX Nastran Load Set 1 : Untitled
FORCE          1       4       0      1.      0.      0.    500.
FORCE          1       7       0      1.      0.      0.    500.
FORCE          1       5       0      1.      0.      0.   1000.
FORCE          1       6       0      1.      0.      0.   1000.
$ Femap with NX Nastran Load Set 2 : Untitled
FORCE          2       4       0      1.      0.      0.    500.
$ Femap with NX Nastran Load Set 3 : Untitled
FORCE          3       8       0      1.      0.      0.  -1000.
FORCE          3       3       0      1.      0.      0.   1000.
$ Femap with NX Nastran Constraint Set 1 : Untitled
SPC1           1    1235       1
SPC1           1    1235      10
SPC1           1    1235      11
SPC1           1    1235      12
$ Femap with NX Nastran Constraint Set 2 : Untitled
SPC1           2    1235       1
SPC1           2     123       4
SPC1           2     123       5
SPC1           2     123       6
SPC1           2     123       7
SPC1           2    1235      10
SPC1           2    1235      11
SPC1           2    1235      12
$ Femap with NX Nastran Property 1 : PLATE Property
PSHELL         1       1     .01       1      1.       1.8333333      0.
$ Femap with NX Nastran Material 1 : ISOTROPIC Material
MAT1           1  7.1+10             .33      0.      0.      0.        
GRID           1       0      0.      0.      0.       0
GRID           2       03.333333      0.      0.       0
GRID           3       06.666667      0.      0.       0
GRID           4       0     10.      0.      0.       0
GRID           5       0     10.1.666667      0.       0
GRID           6       0     10.3.333333      0.       0
GRID           7       0     10.      5.      0.       0
GRID           8       06.666667      5.      0.       0
GRID           9       03.333333      5.      0.       0
GRID          10       0      0.      5.      0.       0
GRID          11       0      0.3.333333      0.       0
GRID          12       0      0.1.666667      0.       0
GRID          13       03.3333331.666667      0.       0
GRID          14       06.6666671.666667      0.       0
GRID          15       03.3333333.333333      0.       0
GRID          16       06.6666673.333333      0.       0
CQUAD4         1       1       1       2      13      12                
CQUAD4         2       1       2       3      14      13                
CQUAD4         3       1       3       4       5      14                
CQUAD4         4       1      12      13      15      11                
CQUAD4         5       1      13      14      16      15                
CQUAD4         6       1      14       5       6      16                
CQUAD4         7       1      11      15       9      10                
CQUAD4         8       1      15      16       8       9                
CQUAD4         9       1      16       6       7       8                
ENDDATA 596ceec3
