INIT MASTER(S)
NASTRAN SYSTEM(442)=-1,SYSTEM(319)=1
ID temp,Femap
SOL 105
CEND
  TITLE = NX Nastran Static Analysis Set
  ECHO = NONE
  DISPLACEMENT(PLOT) = ALL
SUBCASE 1
  SPC = 1
  LOAD = 1
SUBCASE 2
  SPC = 1
  LOAD = 2
SUBCASE 3
  SPC = 2
  LOAD = 3
SUBCASE 4
  SPC = 10
  LOAD = 10
SUBCASE 5
  SPC = 10
  LOAD = 10
  STATSUB = 4
  METHOD = 1
BEGIN BULK
EIGRL,1,0.00001,,5
$ ***************************************************************************
$   Written by : Femap with NX Nastran
$   Version    : 11.3.1
$   Translator : NX Nastran
$   From Model : C:\temp\temp.modfem
$   Date       : Wed Apr 12 23:15:58 2017
$ ***************************************************************************
$
PARAM,POST,-1
PARAM,OGEOM,NO
PARAM,AUTOSPC,YES
PARAM,K6ROT,100.
PARAM,GRDPNT,0
CORD2C         1       0      0.      0.      0.      0.      0.      1.+FEMAPC1
+FEMAPC1      1.      0.      1.        
CORD2S         2       0      0.      0.      0.      0.      0.      1.+FEMAPC2
+FEMAPC2      1.      0.      1.        
$ Femap with NX Nastran Load Set 1 : Untitled
FORCE          1       4       0      1.      0.      0.    500.
FORCE          1       7       0      1.      0.      0.    500.
FORCE          1       5       0      1.      0.      0.   1000.
FORCE          1       6       0      1.      0.      0.   1000.
$ Femap with NX Nastran Load Set 10 : Untitled
$111111122222222333333334444444455555555
FORCE         10       4       0      1.   -500.      0.      0.
FORCE         10       7       0      1.   -500.      0.      0.
FORCE         10       5       0      1.  -1000.      0.      0.
FORCE         10       6       0      1.  -1000.      0.      0.
$ Femap with NX Nastran Load Set 2 : Untitled
FORCE          2       4       0      1.      0.      0.    500.
$ Femap with NX Nastran Load Set 3 : Untitled
FORCE          3       8       0      1.      0.      0.  -1000.
FORCE          3       3       0      1.      0.      0.   1000.
$ Femap with NX Nastran Constraint Set 1 : Untitled
SPC1           1    1235       1
SPC1           1    1235      10
SPC1           1    1235      11
SPC1           1    1235      12
$ Femap with NX Nastran Constraint Set 2 : Untitled
SPC1           2    1235       1
SPC1           2     123       4
SPC1           2     123       5
SPC1           2     123       6
SPC1           2     123       7
SPC1           2    1235      10
SPC1           2    1235      11
SPC1           2    1235      12
$ Femap with NX Nastran Constraint Set 10 : Untitled
$111111122222222333333334444444455555555
SPC1          10      23       2
SPC1          10      23       3
SPC1          10      23       4
SPC1          10      23       5
SPC1          10      23       6
SPC1          10      23       7
SPC1          10      23       8
SPC1          10      23       9

SPC1          10     123       1
SPC1          10     123      10
SPC1          10     123      11
SPC1          10     123      12
$ Femap with NX Nastran Property 1 : PLATE Property
PSHELL         1       1    .007       1      1.       1 .833333      0.
$ Femap with NX Nastran Material 1 : ISOTROPIC Material
MAT1           1  7.1+10             .33      0.      0.      0.        
GRID           1       0      0.      3.      0.       0
GRID           2       02.333333      3.      0.       0
GRID           3       04.666667      3.      0.       0
GRID           4       0      7.      3.      0.       0
GRID           5       0      7.3.666667      0.       0
GRID           6       0      7.4.333333      0.       0
GRID           7       0      7.      5.      0.       0
GRID           8       04.666667      5.      0.       0
GRID           9       02.333333      5.      0.       0
GRID          10       0      0.      5.      0.       0
GRID          11       0      0.4.333333      0.       0
GRID          12       0      0.3.666667      0.       0
GRID          13       02.3333333.666667      0.       0
GRID          14       04.6666673.666667      0.       0
GRID          15       02.3333334.333333      0.       0
GRID          16       04.6666674.333333      0.       0
CTRIA3         1       1       1       2      13                        
CTRIA3         2       1       2       3      14                        
CTRIA3         3       1       3       4       5                        
CTRIA3         4       1      12      13      15                        
CTRIA3         5       1      13      14      16                        
CTRIA3         6       1      14       5       6                        
CTRIA3         7       1      11      15       9                        
CTRIA3         8       1      15      16       8                        
CTRIA3         9       1      16       6       7                        
CTRIA3        10       1      11       9      10                        
CTRIA3        11       1      12      15      11                        
CTRIA3        12       1       1      13      12                        
CTRIA3        13       1       2      14      13                        
CTRIA3        14       1      13      16      15                        
CTRIA3        15       1      15       8       9                        
CTRIA3        16       1      16       7       8                        
CTRIA3        17       1      14       6      16                        
CTRIA3        18       1       3       5      14                        
ENDDATA 6673a275
