INIT MASTER(S)
NASTRAN SYSTEM(442)=-1,SYSTEM(319)=1
ID TEMP,Femap
SOL SEBUCKL
CEND
  TITLE = NX NASTRAN STATIC ANALYSIS SET
  ECHO = NONE
  DISPLACEMENT(PLOT) = ALL
  SPC = 1
  LOAD = 1
SUBCASE 1
SUBCASE 2
  DISPLACEMENT(PLOT) = ALL
SUBCASE 1001
  LABEL = BUCKLING CASE
  METHOD = 1
  STATSUB = 1
SUBCASE 1002
  LABEL = BUCKLING CASE
  DISPLACEMENT(PLOT) = ALL
  METHOD = 1
  STATSUB = 2
BEGIN BULK
$ ***************************************************************************
$   Written by : Femap with NX Nastran
$   Version    : 11.3.1
$   Translator : NX Nastran
$   From Model : 
$   Date       : Mon Jun 25 19:15:39 2018
$ ***************************************************************************
$
PARAM,POST,-1
PARAM,OGEOM,NO
PARAM,AUTOSPC,YES
PARAM,K6ROT,100.
PARAM,GRDPNT,0
EIGRL          1    1.-4               5       0                    MASS
CORD2C         1       0      0.      0.      0.      0.      0.      1.+FEMAPC1
+FEMAPC1      1.      0.      1.        
CORD2S         2       0      0.      0.      0.      0.      0.      1.+FEMAPC2
+FEMAPC2      1.      0.      1.        
$ Femap with NX Nastran Load Set 1 : Untitled
FORCE          1       4       0      1.-16.6667      0.      0.
FORCE          1       7       0      1.-16.6667      0.      0.
FORCE          1       5       0      1.-33.3333      0.      0.
FORCE          1       6       0      1.-33.3333      0.      0.
FORCE          1      24       0      1.-33.3333      0.      0.
FORCE          1      33       0      1.-33.3333      0.      0.
FORCE          1      42       0      1.-33.3333      0.      0.
$ Femap with NX Nastran Constraint Set 1 : bc
SPC1           1    1235       1
SPC1           1       3       2
SPC1           1       3       3
SPC1           1       3       4
SPC1           1       3       5
SPC1           1       3       6
SPC1           1       3       7
SPC1           1       3       8
SPC1           1       3       9
SPC1           1    1235      10
SPC1           1    1235      11
SPC1           1    1235      12
SPC1           1       3      17
SPC1           1       3      20
SPC1           1       3      23
SPC1           1       3      24
SPC1           1       3      33
SPC1           1       3      42
SPC1           1       3      45
SPC1           1    1235      46
$ ... 4 like lines cut
$ Femap with NX Nastran Property 1 : PLATE Property
PSHELL         1       1    .007       1      1.       1 .833333      0.
$ Femap with NX Nastran Material 1 : ISOTROPIC Material
MAT1           1  7.1+102.669+10     .33      0.      0.      0.        
GRID           1       0      0.      3.      0.       0
GRID           2       02.333333      3.      0.       0
GRID           3       04.666667      3.      0.       0
GRID           4       0      7.      3.      0.       0
GRID           5       0      7.3.666667      0.       0
GRID           6       0      7.4.333333      0.       0
GRID           7       0      7.      5.      0.       0
GRID           8       04.666667      5.      0.       0
GRID           9       02.333333      5.      0.       0
GRID          10       0      0.      5.      0.       0
GRID          11       0      0.4.333333      0.       0
GRID          12       0      0.3.666667      0.       0
GRID          13       02.3333333.666667      0.       0
GRID          14       04.6666673.666667      0.       0
GRID          15       02.3333334.333333      0.       0
GRID          16       04.6666674.333333      0.       0
GRID          17       01.166667      3.      0.       0
GRID          18       02.3333333.333334      0.       0
GRID          19       01.1666673.333334      0.       0
GRID          20       0     3.5      3.      0.       0
$ ... 29 like lines cut
CTRIA3         1       1       1      17      19                        
CTRIA3         2       1       2      20      22                        
CTRIA3         3       1       3      23      25                        
CTRIA3         4       1      12      26      28                        
CTRIA3         5       1      13      29      31                        
CTRIA3         6       1      14      32      34                        
CTRIA3         7       1      11      35      37                        
CTRIA3         8       1      15      38      40                        
CTRIA3         9       1      16      41      43                        
CTRIA3        10       1      11      37      46                        
CTRIA3        11       1      12      28      49                        
CTRIA3        12       1       1      19      52                        
CTRIA3        13       1       2      22      18                        
CTRIA3        14       1      13      31      27                        
CTRIA3        15       1      15      40      36                        
CTRIA3        16       1      16      43      39                        
CTRIA3        17       1      14      34      30                        
CTRIA3        18       1       3      25      21                        
CTRIA3        19       1      17       2      18                        
CTRIA3        20       1      17      18      19                        
$ ... 52 like lines cut
ENDDATA 56ec98bf
